tests/corpus/modes/pstcalc/pstcalc_cmd.dss
! WP-PF.1 family deck: the IEC-868 `Pstcalc` executive command (Pascal
! `ExecHelper.DoPstCalc` over `Shared/Pstcalc.pas`). A trivial 3-phase circuit
! is solved, then one `Pstcalc` runs the flicker Pst calculator over a 700-point
! modulated-sine RMS array (dt=1 s, freq=60, 120 V lamp) -> one 10-minute Pst
! value in GlobalResult. The command runs live on both engines at compile time
! (a `not_ported`/parse/panic regression fails the family gate's post-compile
! no-error assert). The byte-exact Pst-value comparison across the full
! npts/shape/lamp/freq/dt matrix is the golden `golden_pstcalc.rs`; the harness
! captures GlobalResult only AFTER its own solve (which clears the Pstcalc
! result), so this deck's compare_global_result compares the post-solve strings.
Clear
New Circuit.pstcalc_cmd basekv=12.47 phases=3 bus1=sourcebus mvasc3=200 mvasc1=210
New Line.l1 bus1=sourcebus bus2=b1 phases=3 r1=0.3 x1=0.9 c1=3.0 length=1 units=km
New Load.ld1 bus1=b1 phases=3 kv=12.47 kw=500 pf=0.95 model=1
Set voltagebases=[12.47]
Calcvoltagebases
Solve
Pstcalc npts=700 voltages=[1.000000,1.024869,1.048175,1.068455,1.084433,1.095106,1.099803,1.098229,1.090483,1.077051,1.058779,1.036812,1.012533,0.987467,0.963188,0.941221,0.922949,0.909517,0.901771,0.900197,0.904894,0.915567,0.931545,0.951825,0.975131,1.000000,1.024869,1.048175,1.068455,1.084433,1.095106,1.099803,1.098229,1.090483,1.077051,1.058779,1.036812,1.012533,0.987467,0.963188,0.941221,0.922949,0.909517,0.901771,0.900197,0.904894,0.915567,0.931545,0.951825,0.975131,1.000000,1.024869,1.048175,1.068455,1.084433,1.095106,1.099803,1.098229,1.090483,1.077051,1.058779,1.036812,1.012533,0.987467,0.963188,0.941221,0.922949,0.909517,0.901771,0.900197,0.904894,0.915567,0.931545,0.951825,0.975131,1.000000,1.024869,1.048175,1.068455,1.084433,1.095106,1.099803,1.098229,1.090483,1.077051,1.058779,1.036812,1.012533,0.987467,0.963188,0.941221,0.922949,0.909517,0.901771,0.900197,0.904894,0.915567,0.931545,0.951825,0.975131,1.000000,1.024869,1.048175,1.068455,1.084433,1.095106,1.099803,1.098229,1.090483,1.077051,1.058779,1.036812,1.012533,0.987467,0.963188,0.941221,0.922949,0.909517,0.901771,0.900197,0.904894,0.915567,0.931545,0.951825,0.975131,1.000000,1.024869,1.048175,1.068455,1.084433,1.095106,1.099803,1.098229,1.090483,1.077051,1.058779,1.036812,1.012533,0.987467,0.963188,0.941221,0.922949,0.909517,0.901771,0.900197,0.904894,0.915567,0.931545,0.951825,0.975131,1.000000,1.024869,1.048175,1.068455,1.084433,1.095106,1.099803,1.098229,1.090483,1.077051,1.058779,1.036812,1.012533,0.987467,0.963188,0.941221,0.922949,0.909517,0.901771,0.900197,0.904894,0.915567,0.931545,0.951825,0.975131,1.000000,1.024869,1.048175,1.068455,1.084433,1.095106,1.099803,1.098229,1.090483,1.077051,1.058779,1.036812,1.012533,0.987467,0.963188,0.941221,0.922949,0.909517,0.901771,0.900197,0.904894,0.915567,0.931545,0.951825,0.975131,1.000000,1.024869,1.048175,1.068455,1.084433,1.095106,1.099803,1.098229,1.090483,1.077051,1.058779,1.036812,1.012533,0.987467,0.963188,0.941221,0.922949,0.909517,0.901771,0.900197,0.904894,0.915567,0.931545,0.951825,0.975131,1.000000,1.024869,1.048175,1.068455,1.084433,1.095106,1.099803,1.098229,1.090483,1.077051,1.058779,1.036812,1.012533,0.987467,0.963188,0.941221,0.922949,0.909517,0.901771,0.900197,0.904894,0.915567,0.931545,0.951825,0.975131,1.000000,1.024869,1.048175,1.068455,1.084433,1.095106,1.099803,1.098229,1.090483,1.077051,1.058779,1.036812,1.012533,0.987467,0.963188,0.941221,0.922949,0.909517,0.901771,0.900197,0.904894,0.915567,0.931545,0.951825,0.975131,1.000000,1.024869,1.048175,1.068455,1.084433,1.095106,1.099803,1.098229,1.090483,1.077051,1.058779,1.036812,1.012533,0.987467,0.963188,0.941221,0.922949,0.909517,0.901771,0.900197,0.904894,0.915567,0.931545,0.951825,0.975131,1.000000,1.024869,1.048175,1.068455,1.084433,1.095106,1.099803,1.098229,1.090483,1.077051,1.058779,1.036812,1.012533,0.987467,0.963188,0.941221,0.922949,0.909517,0.901771,0.900197,0.904894,0.915567,0.931545,0.951825,0.975131,1.000000,1.024869,1.048175,1.068455,1.084433,1.095106,1.099803,1.098229,1.090483,1.077051,1.058779,1.036812,1.012533,0.987467,0.963188,0.941221,0.922949,0.909517,0.901771,0.900197,0.904894,0.915567,0.931545,0.951825,0.975131,1.000000,1.024869,1.048175,1.068455,1.084433,1.095106,1.099803,1.098229,1.090483,1.077051,1.058779,1.036812,1.012533,0.987467,0.963188,0.941221,0.922949,0.909517,0.901771,0.900197,0.904894,0.915567,0.931545,0.951825,0.975131,1.000000,1.024869,1.048175,1.068455,1.084433,1.095106,1.099803,1.098229,1.090483,1.077051,1.058779,1.036812,1.012533,0.987467,0.963188,0.941221,0.922949,0.909517,0.901771,0.900197,0.904894,0.915567,0.931545,0.951825,0.975131,1.000000,1.024869,1.048175,1.068455,1.084433,1.095106,1.099803,1.098229,1.090483,1.077051,1.058779,1.036812,1.012533,0.987467,0.963188,0.941221,0.922949,0.909517,0.901771,0.900197,0.904894,0.915567,0.931545,0.951825,0.975131,1.000000,1.024869,1.048175,1.068455,1.084433,1.095106,1.099803,1.098229,1.090483,1.077051,1.058779,1.036812,1.012533,0.987467,0.963188,0.941221,0.922949,0.909517,0.901771,0.900197,0.904894,0.915567,0.931545,0.951825,0.975131,1.000000,1.024869,1.048175,1.068455,1.084433,1.095106,1.099803,1.098229,1.090483,1.077051,1.058779,1.036812,1.012533,0.987467,0.963188,0.941221,0.922949,0.909517,0.901771,0.900197,0.904894,0.915567,0.931545,0.951825,0.975131,1.000000,1.024869,1.048175,1.068455,1.084433,1.095106,1.099803,1.098229,1.090483,1.077051,1.058779,1.036812,1.012533,0.987467,0.963188,0.941221,0.922949,0.909517,0.901771,0.900197,0.904894,0.915567,0.931545,0.951825,0.975131,1.000000,1.024869,1.048175,1.068455,1.084433,1.095106,1.099803,1.098229,1.090483,1.077051,1.058779,1.036812,1.012533,0.987467,0.963188,0.941221,0.922949,0.909517,0.901771,0.900197,0.904894,0.915567,0.931545,0.951825,0.975131,1.000000,1.024869,1.048175,1.068455,1.084433,1.095106,1.099803,1.098229,1.090483,1.077051,1.058779,1.036812,1.012533,0.987467,0.963188,0.941221,0.922949,0.909517,0.901771,0.900197,0.904894,0.915567,0.931545,0.951825,0.975131,1.000000,1.024869,1.048175,1.068455,1.084433,1.095106,1.099803,1.098229,1.090483,1.077051,1.058779,1.036812,1.012533,0.987467,0.963188,0.941221,0.922949,0.909517,0.901771,0.900197,0.904894,0.915567,0.931545,0.951825,0.975131,1.000000,1.024869,1.048175,1.068455,1.084433,1.095106,1.099803,1.098229,1.090483,1.077051,1.058779,1.036812,1.012533,0.987467,0.963188,0.941221,0.922949,0.909517,0.901771,0.900197,0.904894,0.915567,0.931545,0.951825,0.975131,1.000000,1.024869,1.048175,1.068455,1.084433,1.095106,1.099803,1.098229,1.090483,1.077051,1.058779,1.036812,1.012533,0.987467,0.963188,0.941221,0.922949,0.909517,0.901771,0.900197,0.904894,0.915567,0.931545,0.951825,0.975131,1.000000,1.024869,1.048175,1.068455,1.084433,1.095106,1.099803,1.098229,1.090483,1.077051,1.058779,1.036812,1.012533,0.987467,0.963188,0.941221,0.922949,0.909517,0.901771,0.900197,0.904894,0.915567,0.931545,0.951825,0.975131,1.000000,1.024869,1.048175,1.068455,1.084433,1.095106,1.099803,1.098229,1.090483,1.077051,1.058779,1.036812,1.012533,0.987467,0.963188,0.941221,0.922949,0.909517,0.901771,0.900197,0.904894,0.915567,0.931545,0.951825,0.975131,1.000000,1.024869,1.048175,1.068455,1.084433,1.095106,1.099803,1.098229,1.090483,1.077051,1.058779,1.036812,1.012533,0.987467,0.963188,0.941221,0.922949,0.909517,0.901771,0.900197,0.904894,0.915567,0.931545,0.951825,0.975131] dt=1 freq=60 lamp=120
